Version 4
SHEET 1 1572 680
WIRE 704 -80 656 -80
WIRE 816 -80 784 -80
WIRE 656 64 656 -80
WIRE 656 64 624 64
WIRE 704 64 656 64
WIRE 816 80 816 -80
WIRE 816 80 768 80
WIRE 864 80 816 80
WIRE 992 80 944 80
WIRE 1072 80 992 80
WIRE 64 96 -32 96
WIRE 240 96 64 96
WIRE 448 96 352 96
WIRE 608 96 528 96
WIRE 704 96 608 96
WIRE -32 128 -32 96
WIRE 64 128 64 96
WIRE 240 128 240 96
WIRE 352 128 352 96
WIRE 608 128 608 96
WIRE 992 128 992 80
WIRE -32 240 -32 208
WIRE 64 240 64 208
WIRE 64 240 -32 240
WIRE 240 240 240 208
WIRE 240 240 64 240
WIRE 352 240 352 208
FLAG 736 -32 0
FLAG 608 288 0
FLAG 544 64 0
FLAG 736 112 0
FLAG 352 240 0
FLAG 992 192 0
SYMBOL voltage -32 112 R0
WINDOW 0 -68 30 Left 2
WINDOW 3 -213 93 Left 2
WINDOW 123 0 0 Left 0
WINDOW 39 -213 121 Left 2
SYMATTR InstName V1
SYMATTR Value SINE(0 180 60)
SYMATTR SpiceLine Rser=1m
SYMBOL ind2 224 224 M180
WINDOW 0 -29 85 Left 2
WINDOW 3 -63 8 Left 2
SYMATTR InstName L1
SYMATTR Value 14400
SYMATTR Type ind
SYMBOL ind2 368 224 R180
WINDOW 0 44 86 Left 2
WINDOW 3 44 23 Left 2
SYMATTR InstName L2
SYMATTR Value 1
SYMATTR Type ind
SYMBOL res 544 80 R90
WINDOW 0 0 56 VBottom 2
WINDOW 3 32 56 VTop 2
SYMATTR InstName R1
SYMATTR Value 10k
SYMBOL voltage 736 64 R180
WINDOW 0 24 96 Left 2
WINDOW 3 35 69 Left 2
WINDOW 123 0 0 Left 0
WINDOW 39 0 0 Left 0
SYMATTR InstName V2
SYMATTR Value 6
SYMBOL OpAmps\\UniversalOpamp2 736 80 R0
WINDOW 0 30 22 Left 2
SYMATTR InstName U2
SYMBOL voltage 608 192 R0
WINDOW 0 40 43 Left 2
WINDOW 3 42 74 Left 2
WINDOW 123 0 0 Left 0
WINDOW 39 0 0 Left 0
SYMATTR InstName V4
SYMATTR Value 1.5
SYMBOL res 592 112 R0
WINDOW 0 41 29 Left 2
WINDOW 3 41 55 Left 2
SYMATTR InstName R2
SYMATTR Value 10k
SYMBOL res 640 48 R90
WINDOW 0 -22 56 VBottom 2
WINDOW 3 -28 56 VTop 2
SYMATTR InstName R3
SYMATTR Value 10k
SYMBOL res 800 -96 R90
WINDOW 0 -27 56 VBottom 2
WINDOW 3 -29 56 VTop 2
SYMATTR InstName R4
SYMATTR Value 10k
SYMBOL res 960 64 R90
WINDOW 0 0 56 VBottom 2
WINDOW 3 32 56 VTop 2
SYMATTR InstName R5
SYMATTR Value 1.1k
SYMBOL cap 976 128 R0
SYMATTR InstName C1
SYMATTR Value 2.4µ
SYMBOL Misc\\xvaristor 48 112 R0
SYMATTR InstName U1
TEXT 224 72 Left 2 !K1 L1 L2 1.
TEXT 0 288 Left 2 !.tran 1
